 ****** HSPICE -- D-2010.03-SP2 32-BIT (Aug 26 2010) winnt ******               
  Copyright (C) 2010 Synopsys, Inc. All Rights Reserved.                        
  Unpublished-rights reserved under US copyright laws.
  This program is protected by law and is subject to the 
  terms and conditions of the license agreement from Synopsys.
  Use of this program is your acceptance to be bound by the 
  license agreement. HSPICE is the trademark of Synopsys, Inc.
  Input File: C:\Users\huai2\Desktop\VLSI\spice_sim_hw4\HW4_2_1.sp              
  lic:  
  lic: FLEXlm: v10.8 
  lic: USER:   huai2                HOSTNAME: DESKTOP-MSI 
  lic: HOSTID: "00d86111feb0 38baf8e06f3b 00155d5c235f 38baf8e06f37 38baf8e06f38
  
  lic: Using FLEXlm license file: 
  lic: 27000@localhost 
  lic: Checkout 1 hspice 
  lic: License/Maintenance for hspice will expire on 31-dec-2028/2008.120 
  lic: 1(in_use)/999(total) FLOATING license(s) on SERVER localhost 
  lic:   
  **info** (C:\Users\huai2\Desktop\VLSI\spice_sim_hw4\HW4_2_1.sp:19) DC voltage reset to initial transient source value              in source        0:vin                 new dc=  0.0000D+00
 ***************************************************************************
 ***        model parameters  model name:   0:n_18.1   model type:nmos   ***
 ***************************************************************************

   *** general parameters ***
    deriv=   0.           

   ***  level 49  model parameters  ***

       hspver=    2006.03               level=         49         
      version=        3.2            paramchk=          0         
       apwarn=          1                lite=          0         
       vgslim=          0             binUnit=          1         
       capMod=          2               xpart=          1         
       mobMod=          1              nqsMod=          0         
       stiMod=          0                 elm=          5         
     sfvtflag=          0                 tox=   4.2e-009 meter   
           xj=   1.6e-007 meter       binflag=          0         
         lmin=   1.8e-007 meter          lmax=     5e-005 meter   
         wmin=   2.5e-007 meter          wmax=     0.0001 meter   
         lref=          0 meter          wref=          0 meter   
         lint= 1.587e-008 meter          wint= 1.022e-008 meter   
        lmult=          1               wmult=          1         
           ll=-1.062e-015                 lln=          1         
           lw= 2.996e-015                 lwn=          1         
          lwl=          0                  wl=          0         
          wln=          1                  ww= 7.262e-016         
          wwn=          1                 wwl=          0         
          dwg=-3.396e-009 m/V             dwb= 1.346e-009 m/V^1/2 
           xl= -1.05e-008                  xw=          0         
           a0=       1.93                 ags=     0.5072 V^-1    
           b0= 1.486e-006 meter            b1= 9.064e-006 meter   
         keta=    0.01752 V^-1           voff=    -0.1088 V       
        ngate=     1e+023 cm^-3           vbx=          0 V       
          vbm=         -3 V                xt=  1.55e-007 meter   
         vth0=     0.3075 V               nch=3.7446e+017 cm^-3   
         nsub=     6e+016 cm^-3           nlx= 4.279e-007 meter   
       gamma1=          0 V^-1/2       gamma2=          0 V^-1/2  
           k1=     0.4578 V^1/2            k2=   -0.02638         
           k3=     -10.88                 k3b=     0.2379 V^-1    
           w0=-8.813e-008 meter          dvt0=     0.4042         
         dvt1=     0.3237                dvt2=    -0.8602 V^-1    
        dvt0w=      0.383 meter^-1      dvt1w=     600000 meter^-1
        dvt2w=     -0.025 V^-1           dsub=   0.001592         
         eta0=   0.001004                etab=  -0.001459 V^-1    
           u0=      324.1 cm^2/V/sec         ua=-9.201e-010 m/V     
           ub= 1.907e-018 (m/V)^2          uc= 4.355e-011 V^-1    
         vsat=      72580 m/sec            a1=          0 v^-1    
           a2=          1               delta=       0.01 V       
         rdsw=      4.905 ohm-um         prwg=          0 V^-1    
         prwb=          0 V^-1/2           wr=          1         
         pclm=      1.091             pdiblc1=   0.003061         
      pdiblc2=     1e-006             pdiblcb=          0 V^-1    
       pscbe1= 4.866e+008 V/m          pscbe2=   2.8e-007 V/m     
        drout=   0.001592                pvag=    -0.2958         
      nfactor=      1.038                cdsc=   0.002275 f/m^2   
        cdscb=  0.0008241 f/V/m^2       cdscd=    -0.0005 f/V/m^2 
          cit=  -0.001511 f/m^2        alpha0=          0 m/V     
        beta0=         30 V               dlc=     4e-008 meter   
          dwc=          0 meter           clc=     1e-007 meter   
          cle=        0.6                cgso=  2.35e-010 f/m     
         cgdo=  2.35e-010 f/m            cgbo=          0 f/m     
         cgsl=          0 f/m            cgdl=          0 f/m     
       ckappa=        0.6                  cf= 1.533e-010 f/m     
         acde=          1 m/V            moin=         15 V^1/2   
         toxm=   4.2e-009 m            dtoxcv=          0 m       
          vfb (not used)                alpha1=          0 1/V     
         ijth=          0 A              noff=          1         
       voffcv=          0                 tcj=          0 1/K     
        tcjsw=          0 1/K          tcjswg=          0 1/K     
          tpb=          0 V/K           tpbsw=          0 V/K     
       tpbswg=          0 V/K             llc= -6.64e-015         
          lwc=          0                lwlc=          0         
          wlc=          0                 wwc=          0         
         wwlc=          0                tnom=     298.15 K       
          kt1=    -0.2255 V              kt1l=-4.275e-009         
          kt2=   -0.02527                 ute=     -1.186         
          ua1= 2.253e-009 m/V             ub1=-2.673e-018 (m/V)^2 
          uc1=-3.832e-011 m/V^2            at=      14490 m/s     
          prt=     -10.18         
          using Berkeley noise model       noiMod=          1         
         noia=     1e+020                noib=      50000         
         noic=  -1.4e-012                  em=   4.2e+007         
           ef=          1                  af=          1         
           kf=          0              gdsnoi=-1.23457e-029         
          using Hspice diodes            using ACM 
          acm=         3                 hdif=  2.6e-007 meter    
         ldif=    8e-008 meter             js=    1e-006 amp/m^2  
          jsw=    7e-011 amp/m            xti=         3          
            n=         1                   cj=   0.00103 f/m^2    
           mj=     0.443                   pb=     0.823 V        
         cjsw= 1.34e-010 f/m             mjsw=      0.33          
          php=      0.88 V               pbsw (not used)           
       cjgate=    5e-010 f/m            cjswg (not used)           
        mjswg (not used)                 pbswg (not used)           
          la0=    -0.4667                lags=     0.3028         
        lketa=   -0.01942               lvoff=  -0.004208         
        lvth0=     -0.001                lnlx=-2.854e-008         
        leta0=   0.001574            lpdiblc2=  -0.004752         
          wa0=   -0.04731                wags=   0.004242         
        wvoff= -0.0004078               wvth0=    0.06027         
          wu0=       0.54                 wua= -1.88e-011         
        wvsat=       5066                wute=    0.06373         
          wat=       7067                 pa0=   -0.02649         
        pvoff= -0.0003788                 pw0=   1.3e-009         
          pub=   3.8e-020         
 ***************************************************************************
 ***        model parameters  model name:   0:p_18.1   model type:pmos   ***
 ***************************************************************************

   *** general parameters ***
    deriv=   0.           

   ***  level 49  model parameters  ***

       hspver=    2006.03               level=         49         
      version=        3.2            paramchk=          0         
       apwarn=          1                lite=          0         
       vgslim=          0             binUnit=          1         
       capMod=          2               xpart=          1         
       mobMod=          3              nqsMod=          0         
       stiMod=          0                 elm=          5         
     sfvtflag=          0                 tox=   4.2e-009 meter   
           xj=     1e-007 meter       binflag=          0         
         lmin=   1.8e-007 meter          lmax=     5e-005 meter   
         wmin=   2.5e-007 meter          wmax=     0.0001 meter   
         lref=          0 meter          wref=          0 meter   
         lint=-1.041e-008 meter          wint=-1.525e-007 meter   
        lmult=          1               wmult=          1         
           ll= 6.635e-015                 lln=          1         
           lw=-2.873e-016                 lwn=          1         
          lwl=          0                  wl=          0         
          wln=          1                  ww= 1.236e-014         
          wwn=          1                 wwl=          0         
          dwg=-1.251e-007 m/V             dwb=-1.039e-007 m/V^1/2 
           xl=    -2e-009                  xw=          0         
           a0=       1.35                 ags=     0.3818 V^-1    
           b0=-3.088e-007 meter            b1=          0 meter   
         keta=    0.01044 V^-1           voff=    -0.1073 V       
        ngate=     1e+023 cm^-3           vbx=          0 V       
          vbm=         -3 V                xt=  1.55e-007 meter   
         vth0=    -0.4555 V               nch= 6.231e+017 cm^-3   
         nsub=     6e+016 cm^-3           nlx=  2.53e-007 meter   
       gamma1=          0 V^-1/2       gamma2=          0 V^-1/2  
           k1=     0.5704 V^1/2            k2=   0.006973         
           k3=     -2.833                 k3b=      1.326 V^-1    
           w0=-1.943e-007 meter          dvt0=     0.4885         
         dvt1=    0.07578                dvt2=     0.1187 V^-1    
        dvt0w=    -0.1261 meter^-1      dvt1w=      24790 meter^-1
        dvt2w=     0.6915 V^-1           dsub=     1.9191         
         eta0=      1.071                etab=    -0.9291 V^-1    
           u0=      124.5 cm^2/V/sec         ua=  1.54e-009 m/V     
           ub= 2.646e-019 (m/V)^2          uc=   -0.09587 V^-1    
         vsat=      53400 m/sec            a1=          0 v^-1    
           a2=          1               delta=       0.01 V       
         rdsw=      792.1 ohm-um         prwg=          0 V^-1    
         prwb=          0 V^-1/2           wr=          1         
         pclm=      2.653             pdiblc1=          0         
      pdiblc2=     5e-006             pdiblcb=          0 V^-1    
       pscbe1= 4.866e+008 V/m          pscbe2=   2.8e-007 V/m     
        drout=      1.457                pvag=      1.262         
      nfactor=      1.535                cdsc=  0.0007578 f/m^2   
        cdscb=     0.0001 f/V/m^2       cdscd=-2.883e-005 f/V/m^2 
          cit=  -0.001067 f/m^2        alpha0=          0 m/V     
        beta0=         30 V               dlc=  7.01e-008 meter   
          dwc=          0 meter           clc=     1e-007 meter   
          cle=        0.6                cgso= 2.054e-010 f/m     
         cgdo= 2.054e-010 f/m            cgbo=          0 f/m     
         cgsl=          0 f/m            cgdl=          0 f/m     
       ckappa=        0.6                  cf= 1.533e-010 f/m     
         acde=          1 m/V            moin=         15 V^1/2   
         toxm=   4.2e-009 m            dtoxcv=          0 m       
          vfb (not used)                alpha1=          0 1/V     
         ijth=          0 A              noff=          1         
       voffcv=          0                 tcj=          0 1/K     
        tcjsw=          0 1/K          tcjswg=          0 1/K     
          tpb=          0 V/K           tpbsw=          0 V/K     
       tpbswg=          0 V/K             llc= -1.31e-014         
          lwc=          0                lwlc=          0         
          wlc=          0                 wwc=          0         
         wwlc=          0                tnom=     298.15 K       
          kt1=    -0.2294 V              kt1l=-8.204e-009         
          kt2=  -0.009487                 ute=    -0.4484         
          ua1= 4.571e-009 m/V             ub1=-6.026e-018 (m/V)^2 
          uc1=    -0.0985 m/V^2            at=      12030 m/s     
          prt=          0         
          using Berkeley noise model       noiMod=          1         
         noia=     1e+020                noib=      50000         
         noic=  -1.4e-012                  em=   4.2e+007         
           ef=          1                  af=          1         
           kf=          0              gdsnoi=-1.23457e-029         
          using Hspice diodes            using ACM 
          acm=         3                 hdif=  2.6e-007 meter    
         ldif=    8e-008 meter             js=    3e-006 amp/m^2  
          jsw= 4.22e-011 amp/m            xti=         3          
            n=         1                   cj=   0.00124 f/m^2    
           mj=     0.395                   pb=     0.762 V        
         cjsw= 1.74e-010 f/m             mjsw=     0.324          
          php=     0.665 V               pbsw (not used)           
       cjgate= 1.74e-010 f/m            cjswg (not used)           
        mjswg (not used)                 pbswg (not used)           
          la0=     -0.281                lags=    0.04454         
        lketa=     -0.012               lvoff= -0.0009871         
        lvth0=     0.0044                lnlx=-1.584e-008         
          lua=-8.253e-011            lpdiblc2=   0.003012         
          wa0=   -0.04807                wags=   -0.04277         
        wvoff=  -0.009816               wvth0=    -0.0148         
          wua=  2.63e-009               wvsat=     -14200         
        wrdsw=      10.07                wute=    -0.2682         
          wat=      -6405                wprt=      226.6         
          pa0=    0.08661                pags=   -0.04076         
        pvoff=-9.833e-005               pvth0=     0.0032         
          pua= 5.855e-011               pvsat=       -434         
 

 
      
 **info** set option symb=1 internally to help for convergence.
 *****************************************************************
 ******  option summary
 ******
 runlvl  = 3         bypass  = 2         
1****** HSPICE -- D-2010.03-SP2 32-BIT (Aug 26 2010) winnt ******               
 ******  
 * hw4_2_1.sp

  ******  operating point information tnom=  25.000 temp=  27.000 *****
 ***** operating point status is voltage   simulation time is     0.     
    node    =voltage      node    =voltage      node    =voltage

 +0:in      =   0.      0:nd      =  84.7788n 0:ndd     =   1.8000 
 +0:o1      =   1.8000 

 ******  
 * hw4_2_1.sp

  ******  transient analysis tnom=  25.000 temp=  27.000 *****
   trise=  1.2633E-09  targ=  3.1356E-08   trig=  3.0093E-08
   tfall=  1.7268E-09  targ=  1.1876E-08   trig=  1.0149E-08
   tdelay=  7.9930E-10  targ=  1.0804E-08   trig=  1.0005E-08
x

 
                                                    
   time            voltage          voltage         
                       in               o1          
    0.               0.               1.8000        
    1.00000p         0.               1.8000        
    2.00000p         0.               1.8000        
    3.00000p         0.               1.8000        
    4.00000p         0.               1.8000        
    5.00000p         0.               1.8000        
    6.00000p         0.               1.8000        
    7.00000p         0.               1.8000        
    8.00000p         0.               1.8000        
    9.00000p         0.               1.8000        
   10.00000p         0.               1.8000        
   11.00000p         0.               1.8000        
   12.00000p         0.               1.8000        
   13.00000p         0.               1.8000        
   14.00000p         0.               1.8000        
   15.00000p         0.               1.8000        
   16.00000p         0.               1.8000        
   17.00000p         0.               1.8000        
   18.00000p         0.               1.8000        
   19.00000p         0.               1.8000        
   20.00000p         0.               1.8000        
   21.00000p         0.               1.8000        
   22.00000p         0.               1.8000        
   23.00000p         0.               1.8000        
   24.00000p         0.               1.8000        
   25.00000p         0.               1.8000        
   26.00000p         0.               1.8000        
   27.00000p         0.               1.8000        
   28.00000p         0.               1.8000        
   29.00000p         0.               1.8000        
   30.00000p         0.               1.8000        
   31.00000p         0.               1.8000        
   32.00000p         0.               1.8000        
   33.00000p         0.               1.8000        
   34.00000p         0.               1.8000        
   35.00000p         0.               1.8000        
   36.00000p         0.               1.8000        
   37.00000p         0.               1.8000        
   38.00000p         0.               1.8000        
   39.00000p         0.               1.8000        
   40.00000p         0.               1.8000        
   41.00000p         0.               1.8000        
   42.00000p         0.               1.8000        
   43.00000p         0.               1.8000        
   44.00000p         0.               1.8000        
   45.00000p         0.               1.8000        
   46.00000p         0.               1.8000        
   47.00000p         0.               1.8000        
   48.00000p         0.               1.8000        
   49.00000p         0.               1.8000        
   50.00000p         0.               1.8000        
   51.00000p         0.               1.8000        
   52.00000p         0.               1.8000        
   53.00000p         0.               1.8000        
   54.00000p         0.               1.8000        
   55.00000p         0.               1.8000        
   56.00000p         0.               1.8000        
   57.00000p         0.               1.8000        
   58.00000p         0.               1.8000        
   59.00000p         0.               1.8000        
   60.00000p         0.               1.8000        
   61.00000p         0.               1.8000        
   62.00000p         0.               1.8000        
   63.00000p         0.               1.8000        
   64.00000p         0.               1.8000        
   65.00000p         0.               1.8000        
   66.00000p         0.               1.8000        
   67.00000p         0.               1.8000        
   68.00000p         0.               1.8000        
   69.00000p         0.               1.8000        
   70.00000p         0.               1.8000        
   71.00000p         0.               1.8000        
   72.00000p         0.               1.8000        
   73.00000p         0.               1.8000        
   74.00000p         0.               1.8000        
   75.00000p         0.               1.8000        
   76.00000p         0.               1.8000        
   77.00000p         0.               1.8000        
   78.00000p         0.               1.8000        
   79.00000p         0.               1.8000        
   80.00000p         0.               1.8000        
   81.00000p         0.               1.8000        
   82.00000p         0.               1.8000        
   83.00000p         0.               1.8000        
   84.00000p         0.               1.8000        
   85.00000p         0.               1.8000        
   86.00000p         0.               1.8000        
   87.00000p         0.               1.8000        
   88.00000p         0.               1.8000        
   89.00000p         0.               1.8000        
   90.00000p         0.               1.8000        
   91.00000p         0.               1.8000        
   92.00000p         0.               1.8000        
   93.00000p         0.               1.8000        
   94.00000p         0.               1.8000        
   95.00000p         0.               1.8000        
   96.00000p         0.               1.8000        
   97.00000p         0.               1.8000        
   98.00000p         0.               1.8000        
   99.00000p         0.               1.8000        
  100.00000p         0.               1.8000        
  101.00000p         0.               1.8000        
  102.00000p         0.               1.8000        
  103.00000p         0.               1.8000        
  104.00000p         0.               1.8000        
  105.00000p         0.               1.8000        
  106.00000p         0.               1.8000        
  107.00000p         0.               1.8000        
  108.00000p         0.               1.8000        
  109.00000p         0.               1.8000        
  110.00000p         0.               1.8000        
  111.00000p         0.               1.8000        
  112.00000p         0.               1.8000        
  113.00000p         0.               1.8000        
  114.00000p         0.               1.8000        
  115.00000p         0.               1.8000        
  116.00000p         0.               1.8000        
  117.00000p         0.               1.8000        
  118.00000p         0.               1.8000        
  119.00000p         0.               1.8000        
  120.00000p         0.               1.8000        
  121.00000p         0.               1.8000        
  122.00000p         0.               1.8000        
  123.00000p         0.               1.8000        
  124.00000p         0.               1.8000        
  125.00000p         0.               1.8000        
  126.00000p         0.               1.8000        
  127.00000p         0.               1.8000        
  128.00000p         0.               1.8000        
  129.00000p         0.               1.8000        
  130.00000p         0.               1.8000        
  131.00000p         0.               1.8000        
  132.00000p         0.               1.8000        
  133.00000p         0.               1.8000        
  134.00000p         0.               1.8000        
  135.00000p         0.               1.8000        
  136.00000p         0.               1.8000        
  137.00000p         0.               1.8000        
  138.00000p         0.               1.8000        
  139.00000p         0.               1.8000        
  140.00000p         0.               1.8000        
  141.00000p         0.               1.8000        
  142.00000p         0.               1.8000        
  143.00000p         0.               1.8000        
  144.00000p         0.               1.8000        
  145.00000p         0.               1.8000        
  146.00000p         0.               1.8000        
  147.00000p         0.               1.8000        
  148.00000p         0.               1.8000        
  149.00000p         0.               1.8000        
  150.00000p         0.               1.8000        
  151.00000p         0.               1.8000        
  152.00000p         0.               1.8000        
  153.00000p         0.               1.8000        
  154.00000p         0.               1.8000        
  155.00000p         0.               1.8000        
  156.00000p         0.               1.8000        
  157.00000p         0.               1.8000        
  158.00000p         0.               1.8000        
  159.00000p         0.               1.8000        
  160.00000p         0.               1.8000        
  161.00000p         0.               1.8000        
  162.00000p         0.               1.8000        
  163.00000p         0.               1.8000        
  164.00000p         0.               1.8000        
  165.00000p         0.               1.8000        
  166.00000p         0.               1.8000        
  167.00000p         0.               1.8000        
  168.00000p         0.               1.8000        
  169.00000p         0.               1.8000        
  170.00000p         0.               1.8000        
  171.00000p         0.               1.8000        
  172.00000p         0.               1.8000        
  173.00000p         0.               1.8000        
  174.00000p         0.               1.8000        
  175.00000p         0.               1.8000        
  176.00000p         0.               1.8000        
  177.00000p         0.               1.8000        
  178.00000p         0.               1.8000        
  179.00000p         0.               1.8000        
  180.00000p         0.               1.8000        
  181.00000p         0.               1.8000        
  182.00000p         0.               1.8000        
  183.00000p         0.               1.8000        
  184.00000p         0.               1.8000        
  185.00000p         0.               1.8000        
  186.00000p         0.               1.8000        
  187.00000p         0.               1.8000        
  188.00000p         0.               1.8000        
  189.00000p         0.               1.8000        
  190.00000p         0.               1.8000        
  191.00000p         0.               1.8000        
  192.00000p         0.               1.8000        
  193.00000p         0.               1.8000        
  194.00000p         0.               1.8000        
  195.00000p         0.               1.8000        
  196.00000p         0.               1.8000        
  197.00000p         0.               1.8000        
  198.00000p         0.               1.8000        
  199.00000p         0.               1.8000        
  200.00000p         0.               1.8000        
  201.00000p         0.               1.8000        
  202.00000p         0.               1.8000        
  203.00000p         0.               1.8000        
  204.00000p         0.               1.8000        
  205.00000p         0.               1.8000        
  206.00000p         0.               1.8000        
  207.00000p         0.               1.8000        
  208.00000p         0.               1.8000        
  209.00000p         0.               1.8000        
  210.00000p         0.               1.8000        
  211.00000p         0.               1.8000        
  212.00000p         0.               1.8000        
  213.00000p         0.               1.8000        
  214.00000p         0.               1.8000        
  215.00000p         0.               1.8000        
  216.00000p         0.               1.8000        
  217.00000p         0.               1.8000        
  218.00000p         0.               1.8000        
  219.00000p         0.               1.8000        
  220.00000p         0.               1.8000        
  221.00000p         0.               1.8000        
  222.00000p         0.               1.8000        
  223.00000p         0.               1.8000        
  224.00000p         0.               1.8000        
  225.00000p         0.               1.8000        
  226.00000p         0.               1.8000        
  227.00000p         0.               1.8000        
  228.00000p         0.               1.8000        
  229.00000p         0.               1.8000        
  230.00000p         0.               1.8000        
  231.00000p         0.               1.8000        
  232.00000p         0.               1.8000        
  233.00000p         0.               1.8000        
  234.00000p         0.               1.8000        
  235.00000p         0.               1.8000        
  236.00000p         0.               1.8000        
  237.00000p         0.               1.8000        
  238.00000p         0.               1.8000        
  239.00000p         0.               1.8000        
  240.00000p         0.               1.8000        
  241.00000p         0.               1.8000        
  242.00000p         0.               1.8000        
  243.00000p         0.               1.8000        
  244.00000p         0.               1.8000        
  245.00000p         0.               1.8000        
  246.00000p         0.               1.8000        
  247.00000p         0.               1.8000        
  248.00000p         0.               1.8000        
  249.00000p         0.               1.8000        
  250.00000p         0.               1.8000        
  251.00000p         0.               1.8000        
  252.00000p         0.               1.8000        
  253.00000p         0.               1.8000        
  254.00000p         0.               1.8000        
  255.00000p         0.               1.8000        
  256.00000p         0.               1.8000        
  257.00000p         0.               1.8000        
  258.00000p         0.               1.8000        
  259.00000p         0.               1.8000        
  260.00000p         0.               1.8000        
  261.00000p         0.               1.8000        
  262.00000p         0.               1.8000        
  263.00000p         0.               1.8000        
  264.00000p         0.               1.8000        
  265.00000p         0.               1.8000        
  266.00000p         0.               1.8000        
  267.00000p         0.               1.8000        
  268.00000p         0.               1.8000        
  269.00000p         0.               1.8000        
  270.00000p         0.               1.8000        
  271.00000p         0.               1.8000        
  272.00000p         0.               1.8000        
  273.00000p         0.               1.8000        
  274.00000p         0.               1.8000        
  275.00000p         0.               1.8000        
  276.00000p         0.               1.8000        
  277.00000p         0.               1.8000        
  278.00000p         0.               1.8000        
  279.00000p         0.               1.8000        
  280.00000p         0.               1.8000        
  281.00000p         0.               1.8000        
  282.00000p         0.               1.8000        
  283.00000p         0.               1.8000        
  284.00000p         0.               1.8000        
  285.00000p         0.               1.8000        
  286.00000p         0.               1.8000        
  287.00000p         0.               1.8000        
  288.00000p         0.               1.8000        
  289.00000p         0.               1.8000        
  290.00000p         0.               1.8000        
  291.00000p         0.               1.8000        
  292.00000p         0.               1.8000        
  293.00000p         0.               1.8000        
  294.00000p         0.               1.8000        
  295.00000p         0.               1.8000        
  296.00000p         0.               1.8000        
  297.00000p         0.               1.8000        
  298.00000p         0.               1.8000        
  299.00000p         0.               1.8000        
  300.00000p         0.               1.8000        
  301.00000p         0.               1.8000        
  302.00000p         0.               1.8000        
  303.00000p         0.               1.8000        
  304.00000p         0.               1.8000        
  305.00000p         0.               1.8000        
  306.00000p         0.               1.8000        
  307.00000p         0.               1.8000        
  308.00000p         0.               1.8000        
  309.00000p         0.               1.8000        
  310.00000p         0.               1.8000        
  311.00000p         0.               1.8000        
  312.00000p         0.               1.8000        
  313.00000p         0.               1.8000        
  314.00000p         0.               1.8000        
  315.00000p         0.               1.8000        
  316.00000p         0.               1.8000        
  317.00000p         0.               1.8000        
  318.00000p         0.               1.8000        
  319.00000p         0.               1.8000        
  320.00000p         0.               1.8000        
  321.00000p         0.               1.8000        
  322.00000p         0.               1.8000        
  323.00000p         0.               1.8000        
  324.00000p         0.               1.8000        
  325.00000p         0.               1.8000        
  326.00000p         0.               1.8000        
  327.00000p         0.               1.8000        
  328.00000p         0.               1.8000        
  329.00000p         0.               1.8000        
  330.00000p         0.               1.8000        
  331.00000p         0.               1.8000        
  332.00000p         0.               1.8000        
  333.00000p         0.               1.8000        
  334.00000p         0.               1.8000        
  335.00000p         0.               1.8000        
  336.00000p         0.               1.8000        
  337.00000p         0.               1.8000        
  338.00000p         0.               1.8000        
  339.00000p         0.               1.8000        
  340.00000p         0.               1.8000        
  341.00000p         0.               1.8000        
  342.00000p         0.               1.8000        
  343.00000p         0.               1.8000        
  344.00000p         0.               1.8000        
  345.00000p         0.               1.8000        
  346.00000p         0.               1.8000        
  347.00000p         0.               1.8000        
  348.00000p         0.               1.8000        
  349.00000p         0.               1.8000        
  350.00000p         0.               1.8000        
  351.00000p         0.               1.8000        
  352.00000p         0.               1.8000        
  353.00000p         0.               1.8000        
  354.00000p         0.               1.8000        
  355.00000p         0.               1.8000        
  356.00000p         0.               1.8000        
  357.00000p         0.               1.8000        
  358.00000p         0.               1.8000        
  359.00000p         0.               1.8000        
  360.00000p         0.               1.8000        
  361.00000p         0.               1.8000        
  362.00000p         0.               1.8000        
  363.00000p         0.               1.8000        
  364.00000p         0.               1.8000        
  365.00000p         0.               1.8000        
  366.00000p         0.               1.8000        
  367.00000p         0.               1.8000        
  368.00000p         0.               1.8000        
  369.00000p         0.               1.8000        
  370.00000p         0.               1.8000        
  371.00000p         0.               1.8000        
  372.00000p         0.               1.8000        
  373.00000p         0.               1.8000        
  374.00000p         0.               1.8000        
  375.00000p         0.               1.8000        
  376.00000p         0.               1.8000        
  377.00000p         0.               1.8000        
  378.00000p         0.               1.8000        
  379.00000p         0.               1.8000        
  380.00000p         0.               1.8000        
  381.00000p         0.               1.8000        
  382.00000p         0.               1.8000        
  383.00000p         0.               1.8000        
  384.00000p         0.               1.8000        
  385.00000p         0.               1.8000        
  386.00000p         0.               1.8000        
  387.00000p         0.               1.8000        
  388.00000p         0.               1.8000        
  389.00000p         0.               1.8000        
  390.00000p         0.               1.8000        
  391.00000p         0.               1.8000        
  392.00000p         0.               1.8000        
  393.00000p         0.               1.8000        
  394.00000p         0.               1.8000        
  395.00000p         0.               1.8000        
  396.00000p         0.               1.8000        
  397.00000p         0.               1.8000        
  398.00000p         0.               1.8000        
  399.00000p         0.               1.8000        
  400.00000p         0.               1.8000        
  401.00000p         0.               1.8000        
  402.00000p         0.               1.8000        
  403.00000p         0.               1.8000        
  404.00000p         0.               1.8000        
  405.00000p         0.               1.8000        
  406.00000p         0.               1.8000        
  407.00000p         0.               1.8000        
  408.00000p         0.               1.8000        
  409.00000p         0.               1.8000        
  410.00000p         0.               1.8000        
  411.00000p         0.               1.8000        
  412.00000p         0.               1.8000        
  413.00000p         0.               1.8000        
  414.00000p         0.               1.8000        
  415.00000p         0.               1.8000        
  416.00000p         0.               1.8000        
  417.00000p         0.               1.8000        
  418.00000p         0.               1.8000        
  419.00000p         0.               1.8000        
  420.00000p         0.               1.8000        
  421.00000p         0.               1.8000        
  422.00000p         0.               1.8000        
  423.00000p         0.               1.8000        
  424.00000p         0.               1.8000        
  425.00000p         0.               1.8000        
  426.00000p         0.               1.8000        
  427.00000p         0.               1.8000        
  428.00000p         0.               1.8000        
  429.00000p         0.               1.8000        
  430.00000p         0.               1.8000        
  431.00000p         0.               1.8000        
  432.00000p         0.               1.8000        
  433.00000p         0.               1.8000        
  434.00000p         0.               1.8000        
  435.00000p         0.               1.8000        
  436.00000p         0.               1.8000        
  437.00000p         0.               1.8000        
  438.00000p         0.               1.8000        
  439.00000p         0.               1.8000        
  440.00000p         0.               1.8000        
  441.00000p         0.               1.8000        
  442.00000p         0.               1.8000        
  443.00000p         0.               1.8000        
  444.00000p         0.               1.8000        
  445.00000p         0.               1.8000        
  446.00000p         0.               1.8000        
  447.00000p         0.               1.8000        
  448.00000p         0.               1.8000        
  449.00000p         0.               1.8000        
  450.00000p         0.               1.8000        
  451.00000p         0.               1.8000        
  452.00000p         0.               1.8000        
  453.00000p         0.               1.8000        
  454.00000p         0.               1.8000        
  455.00000p         0.               1.8000        
  456.00000p         0.               1.8000        
  457.00000p         0.               1.8000        
  458.00000p         0.               1.8000        
  459.00000p         0.               1.8000        
  460.00000p         0.               1.8000        
  461.00000p         0.               1.8000        
  462.00000p         0.               1.8000        
  463.00000p         0.               1.8000        
  464.00000p         0.               1.8000        
  465.00000p         0.               1.8000        
  466.00000p         0.               1.8000        
  467.00000p         0.               1.8000        
  468.00000p         0.               1.8000        
  469.00000p         0.               1.8000        
  470.00000p         0.               1.8000        
  471.00000p         0.               1.8000        
  472.00000p         0.               1.8000        
  473.00000p         0.               1.8000        
  474.00000p         0.               1.8000        
  475.00000p         0.               1.8000        
  476.00000p         0.               1.8000        
  477.00000p         0.               1.8000        
  478.00000p         0.               1.8000        
  479.00000p         0.               1.8000        
  480.00000p         0.               1.8000        
  481.00000p         0.               1.8000        
  482.00000p         0.               1.8000        
  483.00000p         0.               1.8000        
  484.00000p         0.               1.8000        
  485.00000p         0.               1.8000        
  486.00000p         0.               1.8000        
  487.00000p         0.               1.8000        
  488.00000p         0.               1.8000        
  489.00000p         0.               1.8000        
  490.00000p         0.               1.8000        
  491.00000p         0.               1.8000        
  492.00000p         0.               1.8000        
  493.00000p         0.               1.8000        
  494.00000p         0.               1.8000        
  495.00000p         0.               1.8000        
  496.00000p         0.               1.8000        
  497.00000p         0.               1.8000        
  498.00000p         0.               1.8000        
  499.00000p         0.               1.8000        
  500.00000p         0.               1.8000        
  501.00000p         0.               1.8000        
  502.00000p         0.               1.8000        
  503.00000p         0.               1.8000        
  504.00000p         0.               1.8000        
  505.00000p         0.               1.8000        
  506.00000p         0.               1.8000        
  507.00000p         0.               1.8000        
  508.00000p         0.               1.8000        
  509.00000p         0.               1.8000        
  510.00000p         0.               1.8000        
  511.00000p         0.               1.8000        
  512.00000p         0.               1.8000        
  513.00000p         0.               1.8000        
  514.00000p         0.               1.8000        
  515.00000p         0.               1.8000        
  516.00000p         0.               1.8000        
  517.00000p         0.               1.8000        
  518.00000p         0.               1.8000        
  519.00000p         0.               1.8000        
  520.00000p         0.               1.8000        
  521.00000p         0.               1.8000        
  522.00000p         0.               1.8000        
  523.00000p         0.               1.8000        
  524.00000p         0.               1.8000        
  525.00000p         0.               1.8000        
  526.00000p         0.               1.8000        
  527.00000p         0.               1.8000        
  528.00000p         0.               1.8000        
  529.00000p         0.               1.8000        
  530.00000p         0.               1.8000        
  531.00000p         0.               1.8000        
  532.00000p         0.               1.8000        
  533.00000p         0.               1.8000        
  534.00000p         0.               1.8000        
  535.00000p         0.               1.8000        
  536.00000p         0.               1.8000        
  537.00000p         0.               1.8000        
  538.00000p         0.               1.8000        
  539.00000p         0.               1.8000        
  540.00000p         0.               1.8000        
  541.00000p         0.               1.8000        
  542.00000p         0.               1.8000        
  543.00000p         0.               1.8000        
  544.00000p         0.               1.8000        
  545.00000p         0.               1.8000        
  546.00000p         0.               1.8000        
  547.00000p         0.               1.8000        
  548.00000p         0.               1.8000        
  549.00000p         0.               1.8000        
  550.00000p         0.               1.8000        
  551.00000p         0.               1.8000        
  552.00000p         0.               1.8000        
  553.00000p         0.               1.8000        
  554.00000p         0.               1.8000        
  555.00000p         0.               1.8000        
  556.00000p         0.               1.8000        
  557.00000p         0.               1.8000        
  558.00000p         0.               1.8000        
  559.00000p         0.               1.8000        
  560.00000p         0.               1.8000        
  561.00000p         0.               1.8000        
  562.00000p         0.               1.8000        
  563.00000p         0.               1.8000        
  564.00000p         0.               1.8000        
  565.00000p         0.               1.8000        
  566.00000p         0.               1.8000        
  567.00000p         0.               1.8000        
  568.00000p         0.               1.8000        
  569.00000p         0.               1.8000        
  570.00000p         0.               1.8000        
  571.00000p         0.               1.8000        
  572.00000p         0.               1.8000        
  573.00000p         0.               1.8000        
  574.00000p         0.               1.8000        
  575.00000p         0.               1.8000        
  576.00000p         0.               1.8000        
  577.00000p         0.               1.8000        
  578.00000p         0.               1.8000        
  579.00000p         0.               1.8000        
  580.00000p         0.               1.8000        
  581.00000p         0.               1.8000        
  582.00000p         0.               1.8000        
  583.00000p         0.               1.8000        
  584.00000p         0.               1.8000        
  585.00000p         0.               1.8000        
  586.00000p         0.               1.8000        
  587.00000p         0.               1.8000        
  588.00000p         0.               1.8000        
  589.00000p         0.               1.8000        
  590.00000p         0.               1.8000        
  591.00000p         0.               1.8000        
  592.00000p         0.               1.8000        
  593.00000p         0.               1.8000        
  594.00000p         0.               1.8000        
  595.00000p         0.               1.8000        
  596.00000p         0.               1.8000        
  597.00000p         0.               1.8000        
  598.00000p         0.               1.8000        
  599.00000p         0.               1.8000        
  600.00000p         0.               1.8000        
  601.00000p         0.               1.8000        
  602.00000p         0.               1.8000        
  603.00000p         0.               1.8000        
  604.00000p         0.               1.8000        
  605.00000p         0.               1.8000        
  606.00000p         0.               1.8000        
  607.00000p         0.               1.8000        
  608.00000p         0.               1.8000        
  609.00000p         0.               1.8000        
  610.00000p         0.               1.8000        
  611.00000p         0.               1.8000        
  612.00000p         0.               1.8000        
  613.00000p         0.               1.8000        
  614.00000p         0.               1.8000        
  615.00000p         0.               1.8000        
  616.00000p         0.               1.8000        
  617.00000p         0.               1.8000        
  618.00000p         0.               1.8000        
  619.00000p         0.               1.8000        
  620.00000p         0.               1.8000        
  621.00000p         0.               1.8000        
  622.00000p         0.               1.8000        
  623.00000p         0.               1.8000        
  624.00000p         0.               1.8000        
  625.00000p         0.               1.8000        
  626.00000p         0.               1.8000        
  627.00000p         0.               1.8000        
  628.00000p         0.               1.8000        
  629.00000p         0.               1.8000        
  630.00000p         0.               1.8000        
  631.00000p         0.               1.8000        
  632.00000p         0.               1.8000        
  633.00000p         0.               1.8000        
  634.00000p         0.               1.8000        
  635.00000p         0.               1.8000        
  636.00000p         0.               1.8000        
  637.00000p         0.               1.8000        
  638.00000p         0.               1.8000        
  639.00000p         0.               1.8000        
  640.00000p         0.               1.8000        
  641.00000p         0.               1.8000        
  642.00000p         0.               1.8000        
  643.00000p         0.               1.8000        
  644.00000p         0.               1.8000        
  645.00000p         0.               1.8000        
  646.00000p         0.               1.8000        
  647.00000p         0.               1.8000        
  648.00000p         0.               1.8000        
  649.00000p         0.               1.8000        
  650.00000p         0.               1.8000        
  651.00000p         0.               1.8000        
  652.00000p         0.               1.8000        
  653.00000p         0.               1.8000        
  654.00000p         0.               1.8000        
  655.00000p         0.               1.8000        
  656.00000p         0.               1.8000        
  657.00000p         0.               1.8000        
  658.00000p         0.               1.8000        
  659.00000p         0.               1.8000        
  660.00000p         0.               1.8000        
  661.00000p         0.               1.8000        
  662.00000p         0.               1.8000        
  663.00000p         0.               1.8000        
  664.00000p         0.               1.8000        
  665.00000p         0.               1.8000        
  666.00000p         0.               1.8000        
  667.00000p         0.               1.8000        
  668.00000p         0.               1.8000        
  669.00000p         0.               1.8000        
  670.00000p         0.               1.8000        
  671.00000p         0.               1.8000        
  672.00000p         0.               1.8000        
  673.00000p         0.               1.8000        
  674.00000p         0.               1.8000        
  675.00000p         0.               1.8000        
  676.00000p         0.               1.8000        
  677.00000p         0.               1.8000        
  678.00000p         0.               1.8000        
  679.00000p         0.               1.8000        
  680.00000p         0.               1.8000        
  681.00000p         0.               1.8000        
  682.00000p         0.               1.8000        
  683.00000p         0.               1.8000        
  684.00000p         0.               1.8000        
  685.00000p         0.               1.8000        
  686.00000p         0.               1.8000        
  687.00000p         0.               1.8000        
  688.00000p         0.               1.8000        
  689.00000p         0.               1.8000        
  690.00000p         0.               1.8000        
  691.00000p         0.               1.8000        
  692.00000p         0.               1.8000        
  693.00000p         0.               1.8000        
  694.00000p         0.               1.8000        
  695.00000p         0.               1.8000        
  696.00000p         0.               1.8000        
  697.00000p         0.               1.8000        
  698.00000p         0.               1.8000        
  699.00000p         0.               1.8000        
  700.00000p         0.               1.8000        
  701.00000p         0.               1.8000        
  702.00000p         0.               1.8000        
  703.00000p         0.               1.8000        
  704.00000p         0.               1.8000        
  705.00000p         0.               1.8000        
  706.00000p         0.               1.8000        
  707.00000p         0.               1.8000        
  708.00000p         0.               1.8000        
  709.00000p         0.               1.8000        
  710.00000p         0.               1.8000        
  711.00000p         0.               1.8000        
  712.00000p         0.               1.8000        
  713.00000p         0.               1.8000        
  714.00000p         0.               1.8000        
  715.00000p         0.               1.8000        
  716.00000p         0.               1.8000        
  717.00000p         0.               1.8000        
  718.00000p         0.               1.8000        
  719.00000p         0.               1.8000        
  720.00000p         0.               1.8000        
  721.00000p         0.               1.8000        
  722.00000p         0.               1.8000        
  723.00000p         0.               1.8000        
  724.00000p         0.               1.8000        
  725.00000p         0.               1.8000        
  726.00000p         0.               1.8000        
  727.00000p         0.               1.8000        
  728.00000p         0.               1.8000        
  729.00000p         0.               1.8000        
  730.00000p         0.               1.8000        
  731.00000p         0.               1.8000        
  732.00000p         0.               1.8000        
  733.00000p         0.               1.8000        
  734.00000p         0.               1.8000        
  735.00000p         0.               1.8000        
  736.00000p         0.               1.8000        
  737.00000p         0.               1.8000        
  738.00000p         0.               1.8000        
  739.00000p         0.               1.8000        
  740.00000p         0.               1.8000        
  741.00000p         0.               1.8000        
  742.00000p         0.               1.8000        
  743.00000p         0.               1.8000        
  744.00000p         0.               1.8000        
  745.00000p         0.               1.8000        
  746.00000p         0.               1.8000        
  747.00000p         0.               1.8000        
  748.00000p         0.               1.8000        
  749.00000p         0.               1.8000        
  750.00000p         0.               1.8000        
  751.00000p         0.               1.8000        
  752.00000p         0.               1.8000        
  753.00000p         0.               1.8000        
  754.00000p         0.               1.8000        
  755.00000p         0.               1.8000        
  756.00000p         0.               1.8000        
  757.00000p         0.               1.8000        
  758.00000p         0.               1.8000        
  759.00000p         0.               1.8000        
  760.00000p         0.               1.8000        
  761.00000p         0.               1.8000        
  762.00000p         0.               1.8000        
  763.00000p         0.               1.8000        
  764.00000p         0.               1.8000        
  765.00000p         0.               1.8000        
  766.00000p         0.               1.8000        
  767.00000p         0.               1.8000        
  768.00000p         0.               1.8000        
  769.00000p         0.               1.8000        
  770.00000p         0.               1.8000        
  771.00000p         0.               1.8000        
  772.00000p         0.               1.8000        
  773.00000p         0.               1.8000        
  774.00000p         0.               1.8000        
  775.00000p         0.               1.8000        
  776.00000p         0.               1.8000        
  777.00000p         0.               1.8000        
  778.00000p         0.               1.8000        
  779.00000p         0.               1.8000        
  780.00000p         0.               1.8000        
  781.00000p         0.               1.8000        
  782.00000p         0.               1.8000        
  783.00000p         0.               1.8000        
  784.00000p         0.               1.8000        
  785.00000p         0.               1.8000        
  786.00000p         0.               1.8000        
  787.00000p         0.               1.8000        
  788.00000p         0.               1.8000        
  789.00000p         0.               1.8000        
  790.00000p         0.               1.8000        
  791.00000p         0.               1.8000        
  792.00000p         0.               1.8000        
  793.00000p         0.               1.8000        
  794.00000p         0.               1.8000        
  795.00000p         0.               1.8000        
  796.00000p         0.               1.8000        
  797.00000p         0.               1.8000        
  798.00000p         0.               1.8000        
  799.00000p         0.               1.8000        
  800.00000p         0.               1.8000        
  801.00000p         0.               1.8000        
  802.00000p         0.               1.8000        
  803.00000p         0.               1.8000        
  804.00000p         0.               1.8000        
  805.00000p         0.               1.8000        
  806.00000p         0.               1.8000        
  807.00000p         0.               1.8000        
  808.00000p         0.               1.8000        
  809.00000p         0.               1.8000        
  810.00000p         0.               1.8000        
  811.00000p         0.               1.8000        
  812.00000p         0.               1.8000        
  813.00000p         0.               1.8000        
  814.00000p         0.               1.8000        
  815.00000p         0.               1.8000        
  816.00000p         0.               1.8000        
  817.00000p         0.               1.8000        
  818.00000p         0.               1.8000        
  819.00000p         0.               1.8000        
  820.00000p         0.               1.8000        
  821.00000p         0.               1.8000        
  822.00000p         0.               1.8000        
  823.00000p         0.               1.8000        
  824.00000p         0.               1.8000        
  825.00000p         0.               1.8000        
  826.00000p         0.               1.8000        
  827.00000p         0.               1.8000        
  828.00000p         0.               1.8000        
  829.00000p         0.               1.8000        
  830.00000p         0.               1.8000        
  831.00000p         0.               1.8000        
  832.00000p         0.               1.8000        
  833.00000p         0.               1.8000        
  834.00000p         0.               1.8000        
  835.00000p         0.               1.8000        
  836.00000p         0.               1.8000        
  837.00000p         0.               1.8000        
  838.00000p         0.               1.8000        
  839.00000p         0.               1.8000        
  840.00000p         0.               1.8000        
  841.00000p         0.               1.8000        
  842.00000p         0.               1.8000        
  843.00000p         0.               1.8000        
  844.00000p         0.               1.8000        
  845.00000p         0.               1.8000        
  846.00000p         0.               1.8000        
  847.00000p         0.               1.8000        
  848.00000p         0.               1.8000        
  849.00000p         0.               1.8000        
  850.00000p         0.               1.8000        
  851.00000p         0.               1.8000        
  852.00000p         0.               1.8000        
  853.00000p         0.               1.8000        
  854.00000p         0.               1.8000        
  855.00000p         0.               1.8000        
  856.00000p         0.               1.8000        
  857.00000p         0.               1.8000        
  858.00000p         0.               1.8000        
  859.00000p         0.               1.8000        
  860.00000p         0.               1.8000        
  861.00000p         0.               1.8000        
  862.00000p         0.               1.8000        
  863.00000p         0.               1.8000        
  864.00000p         0.               1.8000        
  865.00000p         0.               1.8000        
  866.00000p         0.               1.8000        
  867.00000p         0.               1.8000        
  868.00000p         0.               1.8000        
  869.00000p         0.               1.8000        
  870.00000p         0.               1.8000        
  871.00000p         0.               1.8000        
  872.00000p         0.               1.8000        
  873.00000p         0.               1.8000        
  874.00000p         0.               1.8000        
  875.00000p         0.               1.8000        
  876.00000p         0.               1.8000        
  877.00000p         0.               1.8000        
  878.00000p         0.               1.8000        
  879.00000p         0.               1.8000        
  880.00000p         0.               1.8000        
  881.00000p         0.               1.8000        
  882.00000p         0.               1.8000        
  883.00000p         0.               1.8000        
  884.00000p         0.               1.8000        
  885.00000p         0.               1.8000        
  886.00000p         0.               1.8000        
  887.00000p         0.               1.8000        
  888.00000p         0.               1.8000        
  889.00000p         0.               1.8000        
  890.00000p         0.               1.8000        
  891.00000p         0.               1.8000        
  892.00000p         0.               1.8000        
  893.00000p         0.               1.8000        
  894.00000p         0.               1.8000        
  895.00000p         0.               1.8000        
  896.00000p         0.               1.8000        
  897.00000p         0.               1.8000        
  898.00000p         0.               1.8000        
  899.00000p         0.               1.8000        
  900.00000p         0.               1.8000        
  901.00000p         0.               1.8000        
  902.00000p         0.               1.8000        
  903.00000p         0.               1.8000        
  904.00000p         0.               1.8000        
  905.00000p         0.               1.8000        
  906.00000p         0.               1.8000        
  907.00000p         0.               1.8000        
  908.00000p         0.               1.8000        
  909.00000p         0.               1.8000        
  910.00000p         0.               1.8000        
  911.00000p         0.               1.8000        
  912.00000p         0.               1.8000        
  913.00000p         0.               1.8000        
  914.00000p         0.               1.8000        
  915.00000p         0.               1.8000        
  916.00000p         0.               1.8000        
  917.00000p         0.               1.8000        
  918.00000p         0.               1.8000        
  919.00000p         0.               1.8000        
  920.00000p         0.               1.8000        
  921.00000p         0.               1.8000        
  922.00000p         0.               1.8000        
  923.00000p         0.               1.8000        
  924.00000p         0.               1.8000        
  925.00000p         0.               1.8000        
  926.00000p         0.               1.8000        
  927.00000p         0.               1.8000        
  928.00000p         0.               1.8000        
  929.00000p         0.               1.8000        
  930.00000p         0.               1.8000        
  931.00000p         0.               1.8000        
  932.00000p         0.               1.8000        
  933.00000p         0.               1.8000        
  934.00000p         0.               1.8000        
  935.00000p         0.               1.8000        
  936.00000p         0.               1.8000        
  937.00000p         0.               1.8000        
  938.00000p         0.               1.8000        
  939.00000p         0.               1.8000        
  940.00000p         0.               1.8000        
  941.00000p         0.               1.8000        
  942.00000p         0.               1.8000        
  943.00000p         0.               1.8000        
  944.00000p         0.               1.8000        
  945.00000p         0.               1.8000        
  946.00000p         0.               1.8000        
  947.00000p         0.               1.8000        
  948.00000p         0.               1.8000        
  949.00000p         0.               1.8000        
  950.00000p         0.               1.8000        
  951.00000p         0.               1.8000        
  952.00000p         0.               1.8000        
  953.00000p         0.               1.8000        
  954.00000p         0.               1.8000        
  955.00000p         0.               1.8000        
  956.00000p         0.               1.8000        
  957.00000p         0.               1.8000        
  958.00000p         0.               1.8000        
  959.00000p         0.               1.8000        
  960.00000p         0.               1.8000        
  961.00000p         0.               1.8000        
  962.00000p         0.               1.8000        
  963.00000p         0.               1.8000        
  964.00000p         0.               1.8000        
  965.00000p         0.               1.8000        
  966.00000p         0.               1.8000        
  967.00000p         0.               1.8000        
  968.00000p         0.               1.8000        
  969.00000p         0.               1.8000        
  970.00000p         0.               1.8000        
  971.00000p         0.               1.8000        
  972.00000p         0.               1.8000        
  973.00000p         0.               1.8000        
  974.00000p         0.               1.8000        
  975.00000p         0.               1.8000        
  976.00000p         0.               1.8000        
  977.00000p         0.               1.8000        
  978.00000p         0.               1.8000        
  979.00000p         0.               1.8000        
  980.00000p         0.               1.8000        
  981.00000p         0.               1.8000        
  982.00000p         0.               1.8000        
  983.00000p         0.               1.8000        
  984.00000p         0.               1.8000        
  985.00000p         0.               1.8000        
  986.00000p         0.               1.8000        
  987.00000p         0.               1.8000        
  988.00000p         0.               1.8000        
  989.00000p         0.               1.8000        
  990.00000p         0.               1.8000        
  991.00000p         0.               1.8000        
  992.00000p         0.               1.8000        
  993.00000p         0.               1.8000        
  994.00000p         0.               1.8000        
  995.00000p         0.               1.8000        
  996.00000p         0.               1.8000        
  997.00000p         0.               1.8000        
  998.00000p         0.               1.8000        
  999.00000p         0.               1.8000        
    1.00000n         0.               1.8000        
    1.00100n         0.               1.8000        
    1.00200n         0.               1.8000        
    1.00300n         0.               1.8000        
    1.00400n         0.               1.8000        
    1.00500n         0.               1.8000        
    1.00600n         0.               1.8000        
    1.00700n         0.               1.8000        
    1.00800n         0.               1.8000        
    1.00900n         0.               1.8000        
    1.01000n         0.               1.8000        
    1.01100n         0.               1.8000        
    1.01200n         0.               1.8000        
    1.01300n         0.               1.8000        
    1.01400n         0.               1.8000        
    1.01500n         0.               1.8000        
    1.01600n         0.               1.8000        
    1.01700n         0.               1.8000        
    1.01800n         0.               1.8000        
    1.01900n         0.               1.8000        
    1.02000n         0.               1.8000        
    1.02100n         0.               1.8000        
    1.02200n         0.               1.8000        
    1.02300n         0.               1.8000        
    1.02400n         0.               1.8000        
    1.02500n         0.               1.8000        
    1.02600n         0.               1.8000        
    1.02700n         0.               1.8000        
    1.02800n         0.               1.8000        
    1.02900n         0.               1.8000        
    1.03000n         0.               1.8000        
    1.03100n         0.               1.8000        
    1.03200n         0.               1.8000        
    1.03300n         0.               1.8000        
    1.03400n         0.               1.8000        
    1.03500n         0.               1.8000        
    1.03600n         0.               1.8000        
    1.03700n         0.               1.8000        
    1.03800n         0.               1.8000        
    1.03900n         0.               1.8000        
    1.04000n         0.               1.8000        
    1.04100n         0.               1.8000        
    1.04200n         0.               1.8000        
    1.04300n         0.               1.8000        
    1.04400n         0.               1.8000        
    1.04500n         0.               1.8000        
    1.04600n         0.               1.8000        
    1.04700n         0.               1.8000        
    1.04800n         0.               1.8000        
    1.04900n         0.               1.8000        
    1.05000n         0.               1.8000        
    1.05100n         0.               1.8000        
    1.05200n         0.               1.8000        
    1.05300n         0.               1.8000        
    1.05400n         0.               1.8000        
    1.05500n         0.               1.8000        
    1.05600n         0.               1.8000        
    1.05700n         0.               1.8000        
    1.05800n         0.               1.8000        
    1.05900n         0.               1.8000        
    1.06000n         0.               1.8000        
    1.06100n         0.               1.8000        
    1.06200n         0.               1.8000        
    1.06300n         0.               1.8000        
    1.06400n         0.               1.8000        
    1.06500n         0.               1.8000        
    1.06600n         0.               1.8000        
    1.06700n         0.               1.8000        
    1.06800n         0.               1.8000        
    1.06900n         0.               1.8000        
    1.07000n         0.               1.8000        
    1.07100n         0.               1.8000        
    1.07200n         0.               1.8000        
    1.07300n         0.               1.8000        
    1.07400n         0.               1.8000        
    1.07500n         0.               1.8000        
    1.07600n         0.               1.8000        
    1.07700n         0.               1.8000        
    1.07800n         0.               1.8000        
    1.07900n         0.               1.8000        
    1.08000n         0.               1.8000        
    1.08100n         0.               1.8000        
    1.08200n         0.               1.8000        
    1.08300n         0.               1.8000        
    1.08400n         0.               1.8000        
    1.08500n         0.               1.8000        
    1.08600n         0.               1.8000        
    1.08700n         0.               1.8000        
    1.08800n         0.               1.8000        
    1.08900n         0.               1.8000        
    1.09000n         0.               1.8000        
    1.09100n         0.               1.8000        
    1.09200n         0.               1.8000        
    1.09300n         0.               1.8000        
    1.09400n         0.               1.8000        
    1.09500n         0.               1.8000        
    1.09600n         0.               1.8000        
    1.09700n         0.               1.8000        
    1.09800n         0.               1.8000        
    1.09900n         0.               1.8000        
    1.10000n         0.               1.8000        
    1.10100n         0.               1.8000        
    1.10200n         0.               1.8000        
    1.10300n         0.               1.8000        
    1.10400n         0.               1.8000        
    1.10500n         0.               1.8000        
    1.10600n         0.               1.8000        
    1.10700n         0.               1.8000        
    1.10800n         0.               1.8000        
    1.10900n         0.               1.8000        
    1.11000n         0.               1.8000        
    1.11100n         0.               1.8000        
    1.11200n         0.               1.8000        
    1.11300n         0.               1.8000        
    1.11400n         0.               1.8000        
    1.11500n         0.               1.8000        
    1.11600n         0.               1.8000        
    1.11700n         0.               1.8000        
    1.11800n         0.               1.8000        
    1.11900n         0.               1.8000        
    1.12000n         0.               1.8000        
    1.12100n         0.               1.8000        
    1.12200n         0.               1.8000        
    1.12300n         0.               1.8000        
    1.12400n         0.               1.8000        
    1.12500n         0.               1.8000        
    1.12600n         0.               1.8000        
    1.12700n         0.               1.8000        
    1.12800n         0.               1.8000        
    1.12900n         0.               1.8000        
    1.13000n         0.               1.8000        
    1.13100n         0.               1.8000        
    1.13200n         0.               1.8000        
    1.13300n         0.               1.8000        
    1.13400n         0.               1.8000        
    1.13500n         0.               1.8000        
    1.13600n         0.               1.8000        
    1.13700n         0.               1.8000        
    1.13800n         0.               1.8000        
    1.13900n         0.               1.8000        
    1.14000n         0.               1.8000        
    1.14100n         0.               1.8000        
    1.14200n         0.               1.8000        
    1.14300n         0.               1.8000        
    1.14400n         0.               1.8000        
    1.14500n         0.               1.8000        
    1.14600n         0.               1.8000        
    1.14700n         0.               1.8000        
    1.14800n         0.               1.8000        
    1.14900n         0.               1.8000        
    1.15000n         0.               1.8000        
    1.15100n         0.               1.8000        
    1.15200n         0.               1.8000        
    1.15300n         0.               1.8000        
    1.15400n         0.               1.8000        
    1.15500n         0.               1.8000        
    1.15600n         0.               1.8000        
    1.15700n         0.               1.8000        
    1.15800n         0.               1.8000        
    1.15900n         0.               1.8000        
    1.16000n         0.               1.8000        
    1.16100n         0.               1.8000        
    1.16200n         0.               1.8000        
    1.16300n         0.               1.8000        
    1.16400n         0.               1.8000        
    1.16500n         0.               1.8000        
    1.16600n         0.               1.8000        
    1.16700n         0.               1.8000        
    1.16800n         0.               1.8000        
    1.16900n         0.               1.8000        
    1.17000n         0.               1.8000        
    1.17100n         0.               1.8000        
    1.17200n         0.               1.8000        
    1.17300n         0.               1.8000        
    1.17400n         0.               1.8000        
    1.17500n         0.               1.8000        
    1.17600n         0.               1.8000        
    1.17700n         0.               1.8000        
    1.17800n         0.               1.8000        
    1.17900n         0.               1.8000        
    1.18000n         0.               1.8000        
    1.18100n         0.               1.8000        
    1.18200n         0.               1.8000        
[...]
   59.66300n         1.8000          -8.1971u       
   59.66400n         1.8000          -8.2084u       
   59.66500n         1.8000          -8.2197u       
   59.66600n         1.8000          -8.2310u       
   59.66700n         1.8000          -8.2423u       
   59.66800n         1.8000          -8.2536u       
   59.66900n         1.8000          -8.2649u       
   59.67000n         1.8000          -8.2762u       
   59.67100n         1.8000          -8.2875u       
   59.67200n         1.8000          -8.2988u       
   59.67300n         1.8000          -8.3101u       
   59.67400n         1.8000          -8.3214u       
   59.67500n         1.8000          -8.3327u       
   59.67600n         1.8000          -8.3440u       
   59.67700n         1.8000          -8.3553u       
   59.67800n         1.8000          -8.3667u       
   59.67900n         1.8000          -8.3780u       
   59.68000n         1.8000          -8.3893u       
   59.68100n         1.8000          -8.4006u       
   59.68200n         1.8000          -8.4119u       
   59.68300n         1.8000          -8.4232u       
   59.68400n         1.8000          -8.4345u       
   59.68500n         1.8000          -8.4458u       
   59.68600n         1.8000          -8.4571u       
   59.68700n         1.8000          -8.4684u       
   59.68800n         1.8000          -8.4797u       
   59.68900n         1.8000          -8.4910u       
   59.69000n         1.8000          -8.5023u       
   59.69100n         1.8000          -8.5136u       
   59.69200n         1.8000          -8.5249u       
   59.69300n         1.8000          -8.5362u       
   59.69400n         1.8000          -8.5475u       
   59.69500n         1.8000          -8.5588u       
   59.69600n         1.8000          -8.5701u       
   59.69700n         1.8000          -8.5814u       
   59.69800n         1.8000          -8.5927u       
   59.69900n         1.8000          -8.6040u       
   59.70000n         1.8000          -8.6154u       
   59.70100n         1.8000          -8.6267u       
   59.70200n         1.8000          -8.6380u       
   59.70300n         1.8000          -8.6493u       
   59.70400n         1.8000          -8.6606u       
   59.70500n         1.8000          -8.6719u       
   59.70600n         1.8000          -8.6832u       
   59.70700n         1.8000          -8.6945u       
   59.70800n         1.8000          -8.7058u       
   59.70900n         1.8000          -8.7171u       
   59.71000n         1.8000          -8.7284u       
   59.71100n         1.8000          -8.7397u       
   59.71200n         1.8000          -8.7510u       
   59.71300n         1.8000          -8.7623u       
   59.71400n         1.8000          -8.7736u       
   59.71500n         1.8000          -8.7849u       
   59.71600n         1.8000          -8.7962u       
   59.71700n         1.8000          -8.8075u       
   59.71800n         1.8000          -8.8188u       
   59.71900n         1.8000          -8.8301u       
   59.72000n         1.8000          -8.8414u       
   59.72100n         1.8000          -8.8528u       
   59.72200n         1.8000          -8.8641u       
   59.72300n         1.8000          -8.8754u       
   59.72400n         1.8000          -8.8867u       
   59.72500n         1.8000          -8.8980u       
   59.72600n         1.8000          -8.9093u       
   59.72700n         1.8000          -8.9206u       
   59.72800n         1.8000          -8.9319u       
   59.72900n         1.8000          -8.9432u       
   59.73000n         1.8000          -8.9545u       
   59.73100n         1.8000          -8.9658u       
   59.73200n         1.8000          -8.9771u       
   59.73300n         1.8000          -8.9884u       
   59.73400n         1.8000          -8.9997u       
   59.73500n         1.8000          -9.0110u       
   59.73600n         1.8000          -9.0223u       
   59.73700n         1.8000          -9.0336u       
   59.73800n         1.8000          -9.0449u       
   59.73900n         1.8000          -9.0562u       
   59.74000n         1.8000          -9.0675u       
   59.74100n         1.8000          -9.0788u       
   59.74200n         1.8000          -9.0901u       
   59.74300n         1.8000          -9.1015u       
   59.74400n         1.8000          -9.1128u       
   59.74500n         1.8000          -9.1241u       
   59.74600n         1.8000          -9.1354u       
   59.74700n         1.8000          -9.1467u       
   59.74800n         1.8000          -9.1580u       
   59.74900n         1.8000          -9.1693u       
   59.75000n         1.8000          -9.1806u       
   59.75100n         1.8000          -9.1919u       
   59.75200n         1.8000          -9.2032u       
   59.75300n         1.8000          -9.2145u       
   59.75400n         1.8000          -9.2258u       
   59.75500n         1.8000          -9.2371u       
   59.75600n         1.8000          -9.2484u       
   59.75700n         1.8000          -9.2597u       
   59.75800n         1.8000          -9.2710u       
   59.75900n         1.8000          -9.2823u       
   59.76000n         1.8000          -9.2936u       
   59.76100n         1.8000          -9.3049u       
   59.76200n         1.8000          -9.3162u       
   59.76300n         1.8000          -9.3275u       
   59.76400n         1.8000          -9.3389u       
   59.76500n         1.8000          -9.3502u       
   59.76600n         1.8000          -9.3615u       
   59.76700n         1.8000          -9.3728u       
   59.76800n         1.8000          -9.3841u       
   59.76900n         1.8000          -9.3954u       
   59.77000n         1.8000          -9.4067u       
   59.77100n         1.8000          -9.4180u       
   59.77200n         1.8000          -9.4293u       
   59.77300n         1.8000          -9.4406u       
   59.77400n         1.8000          -9.4519u       
   59.77500n         1.8000          -9.4632u       
   59.77600n         1.8000          -9.4745u       
   59.77700n         1.8000          -9.4858u       
   59.77800n         1.8000          -9.4971u       
   59.77900n         1.8000          -9.5084u       
   59.78000n         1.8000          -9.5197u       
   59.78100n         1.8000          -9.5310u       
   59.78200n         1.8000          -9.5423u       
   59.78300n         1.8000          -9.5536u       
   59.78400n         1.8000          -9.5649u       
   59.78500n         1.8000          -9.5762u       
   59.78600n         1.8000          -9.5876u       
   59.78700n         1.8000          -9.5989u       
   59.78800n         1.8000          -9.6102u       
   59.78900n         1.8000          -9.6215u       
   59.79000n         1.8000          -9.6328u       
   59.79100n         1.8000          -9.6441u       
   59.79200n         1.8000          -9.6554u       
   59.79300n         1.8000          -9.6667u       
   59.79400n         1.8000          -9.6780u       
   59.79500n         1.8000          -9.6893u       
   59.79600n         1.8000          -9.7006u       
   59.79700n         1.8000          -9.7119u       
   59.79800n         1.8000          -9.7232u       
   59.79900n         1.8000          -9.7345u       
   59.80000n         1.8000          -9.7458u       
   59.80100n         1.8000          -9.7571u       
   59.80200n         1.8000          -9.7684u       
   59.80300n         1.8000          -9.7797u       
   59.80400n         1.8000          -9.7910u       
   59.80500n         1.8000          -9.8023u       
   59.80600n         1.8000          -9.8136u       
   59.80700n         1.8000          -9.8250u       
   59.80800n         1.8000          -9.8363u       
   59.80900n         1.8000          -9.8476u       
   59.81000n         1.8000          -9.8589u       
   59.81100n         1.8000          -9.8702u       
   59.81200n         1.8000          -9.8815u       
   59.81300n         1.8000          -9.8928u       
   59.81400n         1.8000          -9.9041u       
   59.81500n         1.8000          -9.9154u       
   59.81600n         1.8000          -9.9267u       
   59.81700n         1.8000          -9.9380u       
   59.81800n         1.8000          -9.9493u       
   59.81900n         1.8000          -9.9606u       
   59.82000n         1.8000          -9.9719u       
   59.82100n         1.8000          -9.9832u       
   59.82200n         1.8000          -9.9945u       
   59.82300n         1.8000         -10.0058u       
   59.82400n         1.8000         -10.0171u       
   59.82500n         1.8000         -10.0284u       
   59.82600n         1.8000         -10.0397u       
   59.82700n         1.8000         -10.0510u       
   59.82800n         1.8000         -10.0623u       
   59.82900n         1.8000         -10.0737u       
   59.83000n         1.8000         -10.0850u       
   59.83100n         1.8000         -10.0963u       
   59.83200n         1.8000         -10.1076u       
   59.83300n         1.8000         -10.1189u       
   59.83400n         1.8000         -10.1302u       
   59.83500n         1.8000         -10.1415u       
   59.83600n         1.8000         -10.1528u       
   59.83700n         1.8000         -10.1641u       
   59.83800n         1.8000         -10.1754u       
   59.83900n         1.8000         -10.1867u       
   59.84000n         1.8000         -10.1980u       
   59.84100n         1.8000         -10.2093u       
   59.84200n         1.8000         -10.2206u       
   59.84300n         1.8000         -10.2319u       
   59.84400n         1.8000         -10.2432u       
   59.84500n         1.8000         -10.2545u       
   59.84600n         1.8000         -10.2658u       
   59.84700n         1.8000         -10.2771u       
   59.84800n         1.8000         -10.2884u       
   59.84900n         1.8000         -10.2997u       
   59.85000n         1.8000         -10.3110u       
   59.85100n         1.8000         -10.3224u       
   59.85200n         1.8000         -10.3337u       
   59.85300n         1.8000         -10.3450u       
   59.85400n         1.8000         -10.3563u       
   59.85500n         1.8000         -10.3676u       
   59.85600n         1.8000         -10.3789u       
   59.85700n         1.8000         -10.3902u       
   59.85800n         1.8000         -10.4015u       
   59.85900n         1.8000         -10.4128u       
   59.86000n         1.8000         -10.4241u       
   59.86100n         1.8000         -10.4354u       
   59.86200n         1.8000         -10.4467u       
   59.86300n         1.8000         -10.4580u       
   59.86400n         1.8000         -10.4693u       
   59.86500n         1.8000         -10.4806u       
   59.86600n         1.8000         -10.4919u       
   59.86700n         1.8000         -10.5032u       
   59.86800n         1.8000         -10.5145u       
   59.86900n         1.8000         -10.5258u       
   59.87000n         1.8000         -10.5371u       
   59.87100n         1.8000         -10.5484u       
   59.87200n         1.8000         -10.5598u       
   59.87300n         1.8000         -10.5711u       
   59.87400n         1.8000         -10.5824u       
   59.87500n         1.8000         -10.5937u       
   59.87600n         1.8000         -10.6050u       
   59.87700n         1.8000         -10.6163u       
   59.87800n         1.8000         -10.6276u       
   59.87900n         1.8000         -10.6389u       
   59.88000n         1.8000         -10.6502u       
   59.88100n         1.8000         -10.6615u       
   59.88200n         1.8000         -10.6728u       
   59.88300n         1.8000         -10.6841u       
   59.88400n         1.8000         -10.6954u       
   59.88500n         1.8000         -10.7067u       
   59.88600n         1.8000         -10.7180u       
   59.88700n         1.8000         -10.7293u       
   59.88800n         1.8000         -10.7406u       
   59.88900n         1.8000         -10.7519u       
   59.89000n         1.8000         -10.7632u       
   59.89100n         1.8000         -10.7745u       
   59.89200n         1.8000         -10.7858u       
   59.89300n         1.8000         -10.7971u       
   59.89400n         1.8000         -10.8085u       
   59.89500n         1.8000         -10.8198u       
   59.89600n         1.8000         -10.8311u       
   59.89700n         1.8000         -10.8424u       
   59.89800n         1.8000         -10.8537u       
   59.89900n         1.8000         -10.8650u       
   59.90000n         1.8000         -10.8763u       
   59.90100n         1.8000         -10.8876u       
   59.90200n         1.8000         -10.8989u       
   59.90300n         1.8000         -10.9102u       
   59.90400n         1.8000         -10.9215u       
   59.90500n         1.8000         -10.9328u       
   59.90600n         1.8000         -10.9441u       
   59.90700n         1.8000         -10.9554u       
   59.90800n         1.8000         -10.9667u       
   59.90900n         1.8000         -10.9780u       
   59.91000n         1.8000         -10.9893u       
   59.91100n         1.8000         -11.0006u       
   59.91200n         1.8000         -11.0119u       
   59.91300n         1.8000         -11.0232u       
   59.91400n         1.8000         -11.0345u       
   59.91500n         1.8000         -11.0459u       
   59.91600n         1.8000         -11.0572u       
   59.91700n         1.8000         -11.0685u       
   59.91800n         1.8000         -11.0798u       
   59.91900n         1.8000         -11.0911u       
   59.92000n         1.8000         -11.1024u       
   59.92100n         1.8000         -11.1137u       
   59.92200n         1.8000         -11.1250u       
   59.92300n         1.8000         -11.1363u       
   59.92400n         1.8000         -11.1476u       
   59.92500n         1.8000         -11.1589u       
   59.92600n         1.8000         -11.1702u       
   59.92700n         1.8000         -11.1815u       
   59.92800n         1.8000         -11.1928u       
   59.92900n         1.8000         -11.2041u       
   59.93000n         1.8000         -11.2154u       
   59.93100n         1.8000         -11.2267u       
   59.93200n         1.8000         -11.2380u       
   59.93300n         1.8000         -11.2493u       
   59.93400n         1.8000         -11.2606u       
   59.93500n         1.8000         -11.2719u       
   59.93600n         1.8000         -11.2832u       
   59.93700n         1.8000         -11.2946u       
   59.93800n         1.8000         -11.3059u       
   59.93900n         1.8000         -11.3172u       
   59.94000n         1.8000         -11.3285u       
   59.94100n         1.8000         -11.3398u       
   59.94200n         1.8000         -11.3511u       
   59.94300n         1.8000         -11.3624u       
   59.94400n         1.8000         -11.3737u       
   59.94500n         1.8000         -11.3850u       
   59.94600n         1.8000         -11.3963u       
   59.94700n         1.8000         -11.4076u       
   59.94800n         1.8000         -11.4189u       
   59.94900n         1.8000         -11.4302u       
   59.95000n         1.8000         -11.4415u       
   59.95100n         1.8000         -11.4528u       
   59.95200n         1.8000         -11.4641u       
   59.95300n         1.8000         -11.4754u       
   59.95400n         1.8000         -11.4867u       
   59.95500n         1.8000         -11.4980u       
   59.95600n         1.8000         -11.5093u       
   59.95700n         1.8000         -11.5206u       
   59.95800n         1.8000         -11.5319u       
   59.95900n         1.8000         -11.5433u       
   59.96000n         1.8000         -11.5546u       
   59.96100n         1.8000         -11.5659u       
   59.96200n         1.8000         -11.5772u       
   59.96300n         1.8000         -11.5885u       
   59.96400n         1.8000         -11.5998u       
   59.96500n         1.8000         -11.6111u       
   59.96600n         1.8000         -11.6224u       
   59.96700n         1.8000         -11.6337u       
   59.96800n         1.8000         -11.6450u       
   59.96900n         1.8000         -11.6563u       
   59.97000n         1.8000         -11.6676u       
   59.97100n         1.8000         -11.6789u       
   59.97200n         1.8000         -11.6902u       
   59.97300n         1.8000         -11.7015u       
   59.97400n         1.8000         -11.7128u       
   59.97500n         1.8000         -11.7241u       
   59.97600n         1.8000         -11.7354u       
   59.97700n         1.8000         -11.7467u       
   59.97800n         1.8000         -11.7580u       
   59.97900n         1.8000         -11.7693u       
   59.98000n         1.8000         -11.7807u       
   59.98100n         1.8000         -11.7920u       
   59.98200n         1.8000         -11.8033u       
   59.98300n         1.8000         -11.8146u       
   59.98400n         1.8000         -11.8259u       
   59.98500n         1.8000         -11.8372u       
   59.98600n         1.8000         -11.8485u       
   59.98700n         1.8000         -11.8598u       
   59.98800n         1.8000         -11.8711u       
   59.98900n         1.8000         -11.8824u       
   59.99000n         1.8000         -11.8937u       
   59.99100n         1.8000         -11.9050u       
   59.99200n         1.8000         -11.9163u       
   59.99300n         1.8000         -11.9276u       
   59.99400n         1.8000         -11.9389u       
   59.99500n         1.8000         -11.9502u       
   59.99600n         1.8000         -11.9615u       
   59.99700n         1.8000         -11.9728u       
   59.99800n         1.8000         -11.9841u       
   59.99900n         1.8000         -11.9954u       
   60.00000n         1.8000         -12.0067u       
y

          ***** job concluded
1****** HSPICE -- D-2010.03-SP2 32-BIT (Aug 26 2010) winnt ******               
 ******  
 * hw4_2_1.sp

  ******  job statistics summary tnom=  25.000 temp=  27.000 *****

  ******  HSPICE Threads Information  ******

  Command Line Threads Count                  :     1
  Available CPU Count                         :    12
  Actual Model Evaluation(Load) Threads Count :     1
  Actual Solver Threads Count                 :     1


  ******  Circuit Statistics  ******
  # nodes       =      13 # elements   =       6
  # resistors   =       0 # capacitors =       0 # inductors   =       0
  # mutual_inds =       0 # vccs       =       0 # vcvs        =       0
  # cccs        =       0 # ccvs       =       0 # volt_srcs   =       2
  # curr_srcs   =       0 # diodes     =       0 # bjts        =       0
  # jfets       =       0 # mosfets    =       4 # U elements  =       0
  # T elements  =       0 # W elements =       0 # B elements  =       0
  # S elements  =       0 # P elements =       0 # va device   =       0


  ******  Runtime Statistics (seconds)  ******

  analysis           time    # points   tot. iter  conv.iter
  op point           0.00           1           4
  transient          0.06       60001         275         117 rev=         5
  readin             0.01
  errchk             0.01
  setup              0.01
  output             0.33


           total memory used          196  kbytes
           total cpu time            0.44 seconds
           total elapsed time        0.49 seconds
           job started at     23:50:01 11/09/2024
           job ended   at     23:50:02 11/09/2024


  lic: Release hspice token(s) 
